<?xml version="1.0" encoding="UTF-8"?>

<!-- generated on 2024-12-06 21:19:17 by Eclipse SUMO netedit Version 1.20.0
<configuration xmlns:xsi="http://www.w3.org/2001/XMLSchema-instance" xsi:noNamespaceSchemaLocation="http://sumo.dlr.de/xsd/neteditConfiguration.xsd">

    <input>
        <sumo-net-file value="/home/hiep/SMARTS/scenarios/sumo/custom/map.net.xml"/>
    </input>

    <output>
        <output-file value="/home/hiep/SMARTS/scenarios/sumo/custom/map.net.xml"/>
    </output>

    <processing>
        <geometry.min-radius.fix.railways value="false"/>
        <geometry.max-grade.fix value="false"/>
        <offset.disable-normalization value="true"/>
        <lefthand value="0"/>
    </processing>

    <junctions>
        <no-turnarounds value="true"/>
        <junctions.corner-detail value="5"/>
        <junctions.limit-turn-speed value="5.50"/>
        <rectangular-lane-cut value="0"/>
    </junctions>

    <pedestrian>
        <walkingareas value="0"/>
    </pedestrian>

</configuration>
-->

<net version="1.20" junctionCornerDetail="5" limitTurnSpeed="5.50" xmlns:xsi="http://www.w3.org/2001/XMLSchema-instance" xsi:noNamespaceSchemaLocation="http://sumo.dlr.de/xsd/net_file.xsd">

    <location netOffset="-587793.12,-2324523.16" convBoundary="380.30,167.86,822.48,496.52" origBoundary="105.797619,21.019325,105.854606,21.051215" projParameter="+proj=utm +zone=48 +ellps=WGS84 +datum=WGS84 +units=m +no_defs"/>

    <type id="highway.residential" priority="3" numLanes="1" speed="13.89" disallow="tram rail_urban rail rail_electric rail_fast ship container cable_car subway aircraft wheelchair scooter drone" oneway="0"/>
    <type id="highway.secondary" priority="11" numLanes="1" speed="27.78" disallow="tram rail_urban rail rail_electric rail_fast ship container cable_car subway aircraft wheelchair scooter drone" oneway="0"/>
    <type id="highway.service" priority="1" numLanes="1" speed="5.56" allow="pedestrian delivery bicycle" oneway="0"/>
    <type id="highway.tertiary" priority="10" numLanes="1" speed="22.22" disallow="tram rail_urban rail rail_electric rail_fast ship container cable_car subway aircraft wheelchair scooter drone" oneway="0"/>

    <edge id=":10211743065_0" function="internal">
        <lane id=":10211743065_0_0" index="0" disallow="tram rail_urban rail rail_electric rail_fast ship container cable_car subway aircraft wheelchair scooter drone" speed="22.22" length="14.41" shape="716.81,404.61 703.08,408.99"/>
    </edge>
    <edge id=":10211743065_1" function="internal">
        <lane id=":10211743065_1_0" index="0" disallow="tram rail_urban rail rail_electric rail_fast ship container cable_car subway aircraft wheelchair scooter drone" speed="7.90" length="4.11" shape="716.81,404.61 712.88,405.27 712.75,405.24"/>
    </edge>
    <edge id=":10211743065_2" function="internal">
        <lane id=":10211743065_2_0" index="0" disallow="tram rail_urban rail rail_electric rail_fast ship container cable_car subway aircraft wheelchair scooter drone" speed="3.65" length="1.44" shape="716.81,404.61 715.42,404.22"/>
    </edge>
    <edge id=":10211743065_9" function="internal">
        <lane id=":10211743065_9_0" index="0" disallow="tram rail_urban rail rail_electric rail_fast ship container cable_car subway aircraft wheelchair scooter drone" speed="7.90" length="10.30" shape="712.75,405.24 709.75,404.48 707.42,402.25 705.90,398.57"/>
    </edge>
    <edge id=":10211743065_10" function="internal">
        <lane id=":10211743065_10_0" index="0" disallow="tram rail_urban rail rail_electric rail_fast ship container cable_car subway aircraft wheelchair scooter drone" speed="3.65" length="3.23" shape="715.42,404.22 714.80,403.57 714.94,402.69 715.84,401.56"/>
    </edge>
    <edge id=":10211743065_3" function="internal">
        <lane id=":10211743065_3_0" index="0" disallow="tram rail_urban rail rail_electric rail_fast ship container cable_car subway aircraft wheelchair scooter drone" speed="6.39" length="9.04" shape="709.00,397.77 709.95,400.08 711.41,401.48 713.37,401.98 715.84,401.56"/>
    </edge>
    <edge id=":10211743065_4" function="internal">
        <lane id=":10211743065_4_0" index="0" disallow="tram rail_urban rail rail_electric rail_fast ship container cable_car subway aircraft wheelchair scooter drone" speed="8.20" length="14.28" shape="709.00,397.77 709.46,401.71 708.62,404.89 706.49,407.31 703.08,408.99"/>
    </edge>
    <edge id=":10211743065_5" function="internal">
        <lane id=":10211743065_5_0" index="0" disallow="tram rail_urban rail rail_electric rail_fast ship container cable_car subway aircraft wheelchair scooter drone" speed="3.65" length="4.67" shape="709.00,397.77 708.52,399.14 707.84,399.72 706.97,399.53 705.90,398.57"/>
    </edge>
    <edge id=":10211743065_6" function="internal">
        <lane id=":10211743065_6_0" index="0" disallow="tram rail_urban rail rail_electric rail_fast ship container cable_car subway aircraft wheelchair scooter drone" speed="6.74" length="9.33" shape="702.11,405.94 704.31,404.85 705.68,403.26 706.21,401.16 705.90,398.57"/>
    </edge>
    <edge id=":10211743065_7" function="internal">
        <lane id=":10211743065_7_0" index="0" disallow="tram rail_urban rail rail_electric rail_fast ship container cable_car subway aircraft wheelchair scooter drone" speed="22.22" length="14.41" shape="702.11,405.94 715.84,401.56"/>
    </edge>
    <edge id=":10211743065_8" function="internal">
        <lane id=":10211743065_8_0" index="0" disallow="tram rail_urban rail rail_electric rail_fast ship container cable_car subway aircraft wheelchair scooter drone" speed="3.65" length="1.44" shape="702.11,405.94 703.49,406.33"/>
    </edge>
    <edge id=":10211743065_11" function="internal">
        <lane id=":10211743065_11_0" index="0" disallow="tram rail_urban rail rail_electric rail_fast ship container cable_car subway aircraft wheelchair scooter drone" speed="3.65" length="3.23" shape="703.49,406.33 704.12,406.98 703.98,407.86 703.08,408.99"/>
    </edge>
    <edge id=":10211743067_0" function="internal">
        <lane id=":10211743067_0_0" index="0" disallow="tram rail_urban rail rail_electric rail_fast ship container cable_car subway aircraft wheelchair scooter drone" speed="3.65" length="4.67" shape="717.62,342.32 719.01,342.70 719.64,343.34 719.51,344.22 718.62,345.36"/>
    </edge>
    <edge id=":10211743068_0" function="internal">
        <lane id=":10211743068_0_0" index="0" disallow="tram rail_urban rail rail_electric rail_fast ship container cable_car subway aircraft wheelchair scooter drone" speed="13.89" length="0.10" shape="705.56,397.25 705.56,397.25"/>
    </edge>
    <edge id=":10211743068_1" function="internal">
        <lane id=":10211743068_1_0" index="0" disallow="tram rail_urban rail rail_electric rail_fast ship container cable_car subway aircraft wheelchair scooter drone" speed="13.89" length="0.10" shape="708.66,396.45 708.66,396.45"/>
    </edge>
    <edge id=":10291755894_0" function="internal">
        <lane id=":10291755894_0_0" index="0" disallow="tram rail_urban rail rail_electric rail_fast ship container cable_car subway aircraft wheelchair scooter drone" speed="27.78" length="0.31" shape="692.42,208.06 692.12,208.15"/>
    </edge>
    <edge id=":10291755894_1" function="internal">
        <lane id=":10291755894_1_0" index="0" disallow="tram rail_urban rail rail_electric rail_fast ship container cable_car subway aircraft wheelchair scooter drone" speed="27.78" length="0.25" shape="691.23,205.07 691.47,205.00"/>
    </edge>
    <edge id=":10291755899_0" function="internal">
        <lane id=":10291755899_0_0" index="0" disallow="tram rail_urban rail rail_electric rail_fast ship container cable_car subway aircraft wheelchair scooter drone" speed="27.78" length="0.30" shape="773.85,192.20 773.91,192.49"/>
        <lane id=":10291755899_0_1" index="1" disallow="tram rail_urban rail rail_electric rail_fast ship container cable_car subway aircraft wheelchair scooter drone" speed="27.78" length="0.30" shape="770.71,192.83 770.77,193.13"/>
        <lane id=":10291755899_0_2" index="2" disallow="tram rail_urban rail rail_electric rail_fast ship container cable_car subway aircraft wheelchair scooter drone" speed="27.78" length="0.30" shape="767.57,193.46 767.63,193.77"/>
    </edge>
    <edge id=":11505242064_0" function="internal">
        <lane id=":11505242064_0_0" index="0" disallow="tram rail_urban rail rail_electric rail_fast ship container cable_car subway aircraft wheelchair scooter drone" speed="27.78" length="0.30" shape="789.04,268.05 789.10,268.35"/>
        <lane id=":11505242064_0_1" index="1" disallow="tram rail_urban rail rail_electric rail_fast ship container cable_car subway aircraft wheelchair scooter drone" speed="27.78" length="0.30" shape="785.90,268.67 785.96,268.97"/>
        <lane id=":11505242064_0_2" index="2" disallow="tram rail_urban rail rail_electric rail_fast ship container cable_car subway aircraft wheelchair scooter drone" speed="27.78" length="0.30" shape="782.76,269.29 782.82,269.59"/>
    </edge>
    <edge id=":1819499861_0" function="internal">
        <lane id=":1819499861_0_0" index="0" disallow="tram rail_urban rail rail_electric rail_fast ship container cable_car subway aircraft wheelchair scooter drone" speed="27.78" length="0.30" shape="798.82,317.69 798.88,318.00"/>
        <lane id=":1819499861_0_1" index="1" disallow="tram rail_urban rail rail_electric rail_fast ship container cable_car subway aircraft wheelchair scooter drone" speed="27.78" length="0.30" shape="795.68,318.31 795.74,318.61"/>
        <lane id=":1819499861_0_2" index="2" disallow="tram rail_urban rail rail_electric rail_fast ship container cable_car subway aircraft wheelchair scooter drone" speed="27.78" length="0.30" shape="792.54,318.93 792.60,319.21"/>
    </edge>
    <edge id=":421501417_0" function="internal">
        <lane id=":421501417_0_0" index="0" disallow="tram rail_urban rail rail_electric rail_fast ship container cable_car subway aircraft wheelchair scooter drone" speed="27.78" length="12.69" shape="535.09,257.63 522.98,261.43"/>
    </edge>
    <edge id=":421501417_1" function="internal">
        <lane id=":421501417_1_0" index="0" disallow="tram rail_urban rail rail_electric rail_fast ship container cable_car subway aircraft wheelchair scooter drone" speed="3.65" length="1.44" shape="535.09,257.63 533.71,257.23"/>
    </edge>
    <edge id=":421501417_6" function="internal">
        <lane id=":421501417_6_0" index="0" disallow="tram rail_urban rail rail_electric rail_fast ship container cable_car subway aircraft wheelchair scooter drone" speed="3.65" length="3.23" shape="533.71,257.23 533.08,256.59 533.22,255.71 534.12,254.58"/>
    </edge>
    <edge id=":421501417_2" function="internal">
        <lane id=":421501417_2_0" index="0" disallow="tram rail_urban rail rail_electric rail_fast ship container cable_car subway aircraft wheelchair scooter drone" speed="27.78" length="12.67" shape="522.03,258.38 534.12,254.58"/>
    </edge>
    <edge id=":421501417_3" function="internal">
        <lane id=":421501417_3_0" index="0" disallow="tram rail_urban rail rail_electric rail_fast ship container cable_car subway aircraft wheelchair scooter drone" speed="3.65" length="1.44" shape="522.03,258.38 523.41,258.78"/>
    </edge>
    <edge id=":421501417_7" function="internal">
        <lane id=":421501417_7_0" index="0" disallow="tram rail_urban rail rail_electric rail_fast ship container cable_car subway aircraft wheelchair scooter drone" speed="3.65" length="3.23" shape="523.41,258.78 524.03,259.43 523.89,260.31 522.98,261.43"/>
    </edge>
    <edge id=":421501417_4" function="internal">
        <lane id=":421501417_4_0" index="0" disallow="tram rail_urban rail rail_electric rail_fast ship container cable_car subway aircraft wheelchair scooter drone" speed="5.46" length="9.86" shape="526.68,266.03 527.95,263.12 527.76,261.38 526.11,260.81 522.98,261.43"/>
    </edge>
    <edge id=":421501417_5" function="internal">
        <lane id=":421501417_5_0" index="0" disallow="tram rail_urban rail rail_electric rail_fast ship container cable_car subway aircraft wheelchair scooter drone" speed="12.85" length="14.07" shape="526.68,266.03 528.22,262.62 529.55,259.25 531.30,256.40 534.12,254.58"/>
    </edge>
    <edge id=":421501432_0" function="internal">
        <lane id=":421501432_0_0" index="0" disallow="tram rail_urban rail rail_electric rail_fast ship container cable_car subway aircraft wheelchair scooter drone" speed="22.22" length="11.72" shape="414.42,375.89 410.73,364.76"/>
    </edge>
    <edge id=":421501432_1" function="internal">
        <lane id=":421501432_1_0" index="0" disallow="tram rail_urban rail rail_electric rail_fast ship container cable_car subway aircraft wheelchair scooter drone" speed="9.01" length="2.12" shape="414.42,375.89 414.34,373.95 414.41,373.78"/>
    </edge>
    <edge id=":421501432_2" function="internal">
        <lane id=":421501432_2_0" index="0" disallow="tram rail_urban rail rail_electric rail_fast ship container cable_car subway aircraft wheelchair scooter drone" speed="3.65" length="1.44" shape="414.42,375.89 414.77,374.49"/>
    </edge>
    <edge id=":421501432_6" function="internal">
        <lane id=":421501432_6_0" index="0" disallow="tram rail_urban rail rail_electric rail_fast ship container cable_car subway aircraft wheelchair scooter drone" speed="9.01" length="10.36" shape="414.41,373.78 415.33,371.59 417.40,368.79 420.53,365.55"/>
    </edge>
    <edge id=":421501432_7" function="internal">
        <lane id=":421501432_7_0" index="0" disallow="tram rail_urban rail rail_electric rail_fast ship container cable_car subway aircraft wheelchair scooter drone" speed="3.65" length="3.23" shape="414.77,374.49 415.39,373.84 416.28,373.95 417.43,374.81"/>
    </edge>
    <edge id=":421501432_3" function="internal">
        <lane id=":421501432_3_0" index="0" disallow="tram rail_urban rail rail_electric rail_fast ship container cable_car subway aircraft wheelchair scooter drone" speed="5.75" length="9.17" shape="413.79,363.80 414.95,366.25 416.46,367.36 418.32,367.12 420.53,365.55"/>
    </edge>
    <edge id=":421501432_4" function="internal">
        <lane id=":421501432_4_0" index="0" disallow="tram rail_urban rail rail_electric rail_fast ship container cable_car subway aircraft wheelchair scooter drone" speed="22.22" length="11.60" shape="413.79,363.80 417.43,374.81"/>
    </edge>
    <edge id=":421501432_5" function="internal">
        <lane id=":421501432_5_0" index="0" disallow="tram rail_urban rail rail_electric rail_fast ship container cable_car subway aircraft wheelchair scooter drone" speed="3.65" length="1.44" shape="413.79,363.80 413.39,365.18"/>
    </edge>
    <edge id=":421501432_8" function="internal">
        <lane id=":421501432_8_0" index="0" disallow="tram rail_urban rail rail_electric rail_fast ship container cable_car subway aircraft wheelchair scooter drone" speed="3.65" length="3.23" shape="413.39,365.18 412.74,365.81 411.86,365.67 410.73,364.76"/>
    </edge>
    <edge id=":5704353658_0" function="internal">
        <lane id=":5704353658_0_0" index="0" disallow="tram rail_urban rail rail_electric rail_fast ship container cable_car subway aircraft wheelchair scooter drone" speed="27.78" length="0.29" shape="602.90,376.15 602.83,375.89"/>
        <lane id=":5704353658_0_1" index="1" disallow="tram rail_urban rail rail_electric rail_fast ship container cable_car subway aircraft wheelchair scooter drone" speed="27.78" length="0.29" shape="605.98,375.27 605.89,374.97"/>
    </edge>
    <edge id=":5704353662_0" function="internal">
        <lane id=":5704353662_0_0" index="0" disallow="tram rail_urban rail rail_electric rail_fast ship container cable_car subway aircraft wheelchair scooter drone" speed="22.22" length="0.27" shape="696.27,411.15 696.01,411.23"/>
    </edge>
    <edge id=":5704353662_1" function="internal">
        <lane id=":5704353662_1_0" index="0" disallow="tram rail_urban rail rail_electric rail_fast ship container cable_car subway aircraft wheelchair scooter drone" speed="22.22" length="0.13" shape="695.18,408.14 695.30,408.11"/>
    </edge>
    <edge id=":5707054199_0" function="internal">
        <lane id=":5707054199_0_0" index="0" allow="pedestrian delivery bicycle" speed="3.65" length="4.67" shape="756.36,231.50 756.13,232.92 755.56,233.62 754.67,233.58 753.44,232.82"/>
    </edge>
    <edge id=":5707054201_0" function="internal">
        <lane id=":5707054201_0_0" index="0" allow="pedestrian delivery bicycle" speed="5.56" length="9.40" shape="692.50,235.52 689.94,226.47"/>
    </edge>
    <edge id=":5707054201_1" function="internal">
        <lane id=":5707054201_1_0" index="0" allow="pedestrian delivery bicycle" speed="5.56" length="10.17" shape="692.50,235.52 692.13,232.76 692.73,230.54 694.31,228.87 696.85,227.74"/>
    </edge>
    <edge id=":5707054201_2" function="internal">
        <lane id=":5707054201_2_0" index="0" allow="pedestrian delivery bicycle" speed="3.65" length="4.67" shape="692.50,235.52 692.95,234.15 693.61,233.55 694.48,233.71 695.58,234.65"/>
    </edge>
    <edge id=":5707054201_3" function="internal">
        <lane id=":5707054201_3_0" index="0" allow="pedestrian delivery bicycle" speed="5.04" length="5.00" shape="697.72,230.82 696.47,231.38 695.69,232.20 695.40,233.29 695.58,234.65"/>
    </edge>
    <edge id=":5707054201_4" function="internal">
        <lane id=":5707054201_4_0" index="0" allow="pedestrian delivery bicycle" speed="5.56" length="10.16" shape="697.72,230.82 694.96,231.19 692.74,230.59 691.07,229.02 689.94,226.47"/>
    </edge>
    <edge id=":5707054201_5" function="internal">
        <lane id=":5707054201_5_0" index="0" allow="pedestrian delivery bicycle" speed="3.65" length="4.67" shape="697.72,230.82 696.35,230.38 695.75,229.72 695.92,228.84 696.85,227.74"/>
    </edge>
    <edge id=":5707054201_6" function="internal">
        <lane id=":5707054201_6_0" index="0" allow="pedestrian delivery bicycle" speed="5.04" length="5.00" shape="693.02,225.60 693.58,226.86 694.40,227.63 695.49,227.93 696.85,227.74"/>
    </edge>
    <edge id=":5707054201_7" function="internal">
        <lane id=":5707054201_7_0" index="0" allow="pedestrian delivery bicycle" speed="5.56" length="9.40" shape="693.02,225.60 695.58,234.65"/>
    </edge>
    <edge id=":5707054201_8" function="internal">
        <lane id=":5707054201_8_0" index="0" allow="pedestrian delivery bicycle" speed="3.65" length="4.67" shape="693.02,225.60 692.58,226.98 691.92,227.58 691.04,227.41 689.94,226.47"/>
    </edge>
    <edge id=":5707054202_0" function="internal">
        <lane id=":5707054202_0_0" index="0" allow="pedestrian delivery bicycle" speed="5.21" length="5.23" shape="685.71,213.53 685.03,212.20 684.14,211.37 683.02,211.05 681.68,211.24"/>
    </edge>
    <edge id=":5707054202_1" function="internal">
        <lane id=":5707054202_1_0" index="0" allow="pedestrian delivery bicycle" speed="6.81" length="10.46" shape="685.71,213.53 685.13,210.70 685.63,208.41 687.20,206.67 689.83,205.48"/>
    </edge>
    <edge id=":5707054202_2" function="internal">
        <lane id=":5707054202_2_0" index="0" allow="pedestrian delivery bicycle" speed="3.65" length="4.67" shape="685.71,213.53 686.06,212.13 686.68,211.49 687.57,211.60 688.72,212.46"/>
    </edge>
    <edge id=":5707054202_3" function="internal">
        <lane id=":5707054202_3_0" index="0" allow="pedestrian delivery bicycle" speed="4.98" length="5.07" shape="690.72,208.55 689.44,209.13 688.68,209.97 688.44,211.08 688.72,212.46"/>
    </edge>
    <edge id=":5707054202_4" function="internal">
        <lane id=":5707054202_4_0" index="0" disallow="tram rail_urban rail rail_electric rail_fast ship container cable_car subway aircraft wheelchair scooter drone" speed="27.78" length="9.43" shape="690.72,208.55 681.68,211.24"/>
    </edge>
    <edge id=":5707054202_5" function="internal">
        <lane id=":5707054202_5_0" index="0" disallow="tram rail_urban rail rail_electric rail_fast ship container cable_car subway aircraft wheelchair scooter drone" speed="27.78" length="9.48" shape="680.74,208.18 689.83,205.48"/>
    </edge>
    <edge id=":5707054202_6" function="internal">
        <lane id=":5707054202_6_0" index="0" allow="pedestrian delivery bicycle" speed="6.99" length="3.21" shape="680.74,208.18 683.43,207.78 683.91,207.91"/>
    </edge>
    <edge id=":5707054202_7" function="internal">
        <lane id=":5707054202_7_0" index="0" allow="pedestrian delivery bicycle" speed="6.99" length="7.01" shape="683.91,207.91 685.65,208.36 687.41,209.92 688.72,212.46"/>
    </edge>
    <edge id=":5707060228_0" function="internal">
        <lane id=":5707060228_0_0" index="0" allow="pedestrian delivery bicycle" speed="3.65" length="4.67" shape="704.41,265.80 703.97,267.18 703.31,267.78 702.43,267.61 701.33,266.68"/>
    </edge>
    <edge id=":5707060229_0" function="internal">
        <lane id=":5707060229_0_0" index="0" allow="pedestrian delivery bicycle" speed="5.56" length="0.13" shape="688.24,220.46 688.21,220.34"/>
    </edge>
    <edge id=":5707060229_1" function="internal">
        <lane id=":5707060229_1_0" index="0" allow="pedestrian delivery bicycle" speed="5.56" length="0.38" shape="691.21,219.23 691.32,219.59"/>
    </edge>
    <edge id=":6651584901_0" function="internal">
        <lane id=":6651584901_0_0" index="0" disallow="tram rail_urban rail rail_electric rail_fast ship container cable_car subway aircraft wheelchair scooter drone" speed="22.22" length="0.55" shape="467.69,481.01 467.53,481.06 467.42,481.09 467.31,481.11 467.15,481.15"/>
    </edge>
    <edge id=":6651584901_1" function="internal">
        <lane id=":6651584901_1_0" index="0" disallow="tram rail_urban rail rail_electric rail_fast ship container cable_car subway aircraft wheelchair scooter drone" speed="22.22" length="0.18" shape="466.53,478.01 466.58,478.00 466.62,477.99 466.65,477.98 466.70,477.96"/>
    </edge>
    <edge id=":6651584902_0" function="internal">
        <lane id=":6651584902_0_0" index="0" disallow="tram rail_urban rail rail_electric rail_fast ship container cable_car subway aircraft wheelchair scooter drone" speed="22.22" length="0.25" shape="443.45,462.06 443.38,461.83"/>
    </edge>
    <edge id=":6651584902_1" function="internal">
        <lane id=":6651584902_1_0" index="0" disallow="tram rail_urban rail rail_electric rail_fast ship container cable_car subway aircraft wheelchair scooter drone" speed="22.22" length="0.31" shape="446.41,460.81 446.51,461.11"/>
    </edge>
    <edge id=":6662289408_0" function="internal">
        <lane id=":6662289408_0_0" index="0" disallow="tram rail_urban rail rail_electric rail_fast ship container cable_car subway aircraft wheelchair scooter drone" speed="27.78" length="0.11" shape="575.99,243.55 575.89,243.58"/>
    </edge>
    <edge id=":6662289408_1" function="internal">
        <lane id=":6662289408_1_0" index="0" disallow="tram rail_urban rail rail_electric rail_fast ship container cable_car subway aircraft wheelchair scooter drone" speed="27.78" length="0.32" shape="574.75,240.59 575.06,240.49"/>
    </edge>
    <edge id=":6662289409_0" function="internal">
        <lane id=":6662289409_0_0" index="0" disallow="tram rail_urban rail rail_electric rail_fast ship container cable_car subway aircraft wheelchair scooter drone" speed="27.78" length="0.30" shape="567.25,257.83 567.17,257.57"/>
        <lane id=":6662289409_0_1" index="1" disallow="tram rail_urban rail rail_electric rail_fast ship container cable_car subway aircraft wheelchair scooter drone" speed="27.78" length="0.30" shape="570.31,256.91 570.22,256.61"/>
    </edge>
    <edge id=":6662289410_0" function="internal">
        <lane id=":6662289410_0_0" index="0" disallow="tram rail_urban rail rail_electric rail_fast ship container cable_car subway aircraft wheelchair scooter drone" speed="27.78" length="0.30" shape="553.32,251.83 553.03,251.92"/>
    </edge>
    <edge id=":6662289410_1" function="internal">
        <lane id=":6662289410_1_0" index="0" disallow="tram rail_urban rail rail_electric rail_fast ship container cable_car subway aircraft wheelchair scooter drone" speed="27.78" length="0.20" shape="552.06,248.87 552.26,248.81"/>
    </edge>
    <edge id=":6662289412_0" function="internal">
        <lane id=":6662289412_0_0" index="0" disallow="tram rail_urban rail rail_electric rail_fast ship container cable_car subway aircraft wheelchair scooter drone" speed="22.22" length="0.22" shape="394.62,308.82 394.55,308.60"/>
    </edge>
    <edge id=":6662289412_1" function="internal">
        <lane id=":6662289412_1_0" index="0" disallow="tram rail_urban rail rail_electric rail_fast ship container cable_car subway aircraft wheelchair scooter drone" speed="22.22" length="0.31" shape="397.61,307.64 397.69,307.94"/>
    </edge>
    <edge id=":6662289413_0" function="internal">
        <lane id=":6662289413_0_0" index="0" disallow="tram rail_urban rail rail_electric rail_fast ship container cable_car subway aircraft wheelchair scooter drone" speed="27.78" length="0.29" shape="407.98,295.07 407.70,295.15"/>
    </edge>
    <edge id=":6662289413_1" function="internal">
        <lane id=":6662289413_1_0" index="0" disallow="tram rail_urban rail rail_electric rail_fast ship container cable_car subway aircraft wheelchair scooter drone" speed="27.78" length="0.31" shape="406.79,292.08 407.09,291.99"/>
    </edge>
    <edge id=":6662719069_0" function="internal">
        <lane id=":6662719069_0_0" index="0" disallow="tram rail_urban rail rail_electric rail_fast ship container cable_car subway aircraft wheelchair scooter drone" speed="13.89" length="0.21" shape="515.87,283.74 515.92,283.70 515.95,283.67 515.98,283.64 516.02,283.59"/>
    </edge>
    <edge id=":6688223093_0" function="internal">
        <lane id=":6688223093_0_0" index="0" disallow="tram rail_urban rail rail_electric rail_fast ship container cable_car subway aircraft wheelchair scooter drone" speed="27.78" length="0.53" shape="806.79,359.20 806.84,359.45 806.87,359.63 806.89,359.81 806.91,360.07"/>
        <lane id=":6688223093_0_1" index="1" disallow="tram rail_urban rail rail_electric rail_fast ship container cable_car subway aircraft wheelchair scooter drone" speed="27.78" length="0.53" shape="803.65,359.80 803.68,359.95 803.70,360.06 803.71,360.17 803.72,360.32"/>
        <lane id=":6688223093_0_2" index="2" disallow="tram rail_urban rail rail_electric rail_fast ship container cable_car subway aircraft wheelchair scooter drone" speed="27.78" length="0.53" shape="800.51,360.40 800.52,360.46 800.52,360.49 800.53,360.53 800.53,360.58"/>
    </edge>
    <edge id=":8173724198_0" function="internal">
        <lane id=":8173724198_0_0" index="0" disallow="tram rail_urban rail rail_electric rail_fast ship container cable_car subway aircraft wheelchair scooter drone" speed="13.89" length="0.34" shape="517.60,281.84 517.66,281.76 517.71,281.71 517.74,281.65 517.79,281.56"/>
    </edge>
    <edge id=":8173724220_0" function="internal">
        <lane id=":8173724220_0_0" index="0" allow="pedestrian delivery bicycle" speed="5.56" length="0.31" shape="686.32,215.24 686.21,214.95"/>
    </edge>
    <edge id=":8173724220_1" function="internal">
        <lane id=":8173724220_1_0" index="0" allow="pedestrian delivery bicycle" speed="3.65" length="2.34" shape="686.32,215.24 686.65,213.84 687.27,213.19"/>
    </edge>
    <edge id=":8173724220_4" function="internal">
        <lane id=":8173724220_4_0" index="0" allow="pedestrian delivery bicycle" speed="3.65" length="2.34" shape="687.27,213.19 688.15,213.28 689.32,214.13"/>
    </edge>
    <edge id=":8173724220_2" function="internal">
        <lane id=":8173724220_2_0" index="0" allow="pedestrian delivery bicycle" speed="5.56" length="0.27" shape="689.23,213.87 689.32,214.13"/>
    </edge>
    <edge id=":8173724220_3" function="internal">
        <lane id=":8173724220_3_0" index="0" allow="pedestrian delivery bicycle" speed="3.65" length="2.34" shape="689.23,213.87 688.88,215.27 688.26,215.92"/>
    </edge>
    <edge id=":8173724220_5" function="internal">
        <lane id=":8173724220_5_0" index="0" allow="pedestrian delivery bicycle" speed="3.65" length="2.34" shape="688.26,215.92 687.37,215.81 686.21,214.95"/>
    </edge>
    <edge id=":8173724227_0" function="internal">
        <lane id=":8173724227_0_0" index="0" disallow="tram rail_urban rail rail_electric rail_fast ship container cable_car subway aircraft wheelchair scooter drone" speed="27.78" length="0.27" shape="752.58,189.39 752.31,189.47"/>
    </edge>
    <edge id=":8173724227_1" function="internal">
        <lane id=":8173724227_1_0" index="0" disallow="tram rail_urban rail rail_electric rail_fast ship container cable_car subway aircraft wheelchair scooter drone" speed="27.78" length="0.31" shape="751.37,186.42 751.66,186.32"/>
    </edge>
    <edge id=":8173724229_0" function="internal">
        <lane id=":8173724229_0_0" index="0" disallow="tram rail_urban rail rail_electric rail_fast ship container cable_car subway aircraft wheelchair scooter drone" speed="27.78" length="0.30" shape="613.20,411.98 613.11,411.69"/>
        <lane id=":8173724229_0_1" index="1" disallow="tram rail_urban rail rail_electric rail_fast ship container cable_car subway aircraft wheelchair scooter drone" speed="27.78" length="0.30" shape="616.27,411.08 616.19,410.81"/>
    </edge>
    <edge id=":8173724231_0" function="internal">
        <lane id=":8173724231_0_0" index="0" disallow="tram rail_urban rail rail_electric rail_fast ship container cable_car subway aircraft wheelchair scooter drone" speed="13.89" length="0.10" shape="424.88,361.44 424.88,361.44"/>
    </edge>
    <edge id=":8173724248_0" function="internal">